LTspice 26.0.1 for Windows
Circuit: C:\Users\tisda\Desktop\Projects\BB_PowerSupply\LTSpice\Sim.net
Start Time: Mon Apr 13 15:59:07 2026
solver = Normal
Maximum thread count: 16
tnom = 27
temp = 27
method = trap
Direct Newton iteration failed to find operating point.
Starting Gmin stepping
Gmin stepping succeeded in finding the operating point.

Total elapsed time: 0.194 seconds.

Files loaded:
C:\Users\tisda\Desktop\Projects\BB_PowerSupply\LTSpice\Sim.net
C:\Users\tisda\AppData\Local\LTspice\lib\sub\LT317A.sub

